/batch
/config,noeldb,1     ! force off writing results to database
*get,_wallstrt,active,,time,wall
! ANSYS input file written by Workbench version 2021 R1
! File used for geometry attach: C:\Users\janga\AppData\Local\Temp\WB_janga_17068_2\wbnew_files\dp0\SYS\DM\SYS.agdb
/title,wbnew--Static Structural (A5)
*DIM,_wb_ProjectScratch_dir,string,248
_wb_ProjectScratch_dir(1) = 'C:\Users\janga\AppData\Local\Temp\WB_janga_17068_2\_ProjectScratch\Scr6A91\'
*DIM,_wb_SolverFiles_dir,string,248
_wb_SolverFiles_dir(1) = 'C:\Users\janga\AppData\Local\Temp\WB_janga_17068_2\wbnew_files\dp0\SYS\MECH\'
*DIM,_wb_userfiles_dir,string,248
_wb_userfiles_dir(1) = 'C:\Users\janga\AppData\Local\Temp\WB_janga_17068_2\wbnew_files\user_files\'
/com,--- Data in consistent BFT units. See Solving Units in the help system for more information.
/units,BFT
/nopr
/wb,file,start              !  signify a WB generated input file
/prep7
! Turn off shape checking because checks already performed inside WB mesher.
! See help system for more information.
SHPP,OFF,,NOWARN
/nolist
etcon,set             ! allow ANSYS to choose best KEYOP's for 180x elements, resets any applicable keyopt to MAPDL defaults
/com,*********** Nodes for the whole assembly ***********
nblock,3,,280
(1i9,3e20.9e3)
        1     0.000000000E+00     0.000000000E+00     0.000000000E+00
        2     0.000000000E+00     8.333333333E+00     0.000000000E+00
        3     0.000000000E+00     6.561679790E-02     0.000000000E+00
        4     0.000000000E+00     1.312335958E-01     0.000000000E+00
        5     0.000000000E+00     1.968503937E-01     0.000000000E+00
        6     0.000000000E+00     2.624671916E-01     0.000000000E+00
        7     0.000000000E+00     3.280839895E-01     0.000000000E+00
        8     0.000000000E+00     3.937007874E-01     0.000000000E+00
        9     0.000000000E+00     4.593175853E-01     0.000000000E+00
       10     0.000000000E+00     5.249343832E-01     0.000000000E+00
       11     0.000000000E+00     5.905511811E-01     0.000000000E+00
       12     0.000000000E+00     6.561679790E-01     0.000000000E+00
       13     0.000000000E+00     7.217847769E-01     0.000000000E+00
       14     0.000000000E+00     7.874015748E-01     0.000000000E+00
       15     0.000000000E+00     8.530183727E-01     0.000000000E+00
       16     0.000000000E+00     9.186351706E-01     0.000000000E+00
       17     0.000000000E+00     9.842519685E-01     0.000000000E+00
       18     0.000000000E+00     1.049868766E+00     0.000000000E+00
       19     0.000000000E+00     1.115485564E+00     0.000000000E+00
       20     0.000000000E+00     1.181102362E+00     0.000000000E+00
! ... 236 like lines cut
/wb,elem,start            !  set before creation of elements
/com,*********** Elements for Body 1 "Line Body" ***********
et,1,188
keyo,1,3,2
eblock,19,solid,,127
(19i9)
        1        1        1        1        0        0        0        0        3        0        1        1        3      129
        1        1        1        1        0        0        0        0        3        0        2        3        4      130
        1        1        1        1        0        0        0        0        3        0        3        4        5      131
        1        1        1        1        0        0        0        0        3        0        4        5        6      132
        1        1        1        1        0        0        0        0        3        0        5        6        7      133
        1        1        1        1        0        0        0        0        3        0        6        7        8      134
        1        1        1        1        0        0        0        0        3        0        7        8        9      135
        1        1        1        1        0        0        0        0        3        0        8        9       10      136
        1        1        1        1        0        0        0        0        3        0        9       10       11      137
        1        1        1        1        0        0        0        0        3        0       10       11       12      138
        1        1        1        1        0        0        0        0        3        0       11       12       13      139
        1        1        1        1        0        0        0        0        3        0       12       13       14      140
        1        1        1        1        0        0        0        0        3        0       13       14       15      141
        1        1        1        1        0        0        0        0        3        0       14       15       16      142
        1        1        1        1        0        0        0        0        3        0       15       16       17      143
        1        1        1        1        0        0        0        0        3        0       16       17       18      144
        1        1        1        1        0        0        0        0        3        0       17       18       19      145
        1        1        1        1        0        0        0        0        3        0       18       19       20      146
        1        1        1        1        0        0        0        0        3        0       19       20       21      147
        1        1        1        1        0        0        0        0        3        0       20       21       22      148
! ... 108 like lines cut
!Material Id = {A9F68C70-EE94-4C90-A738-20B54F75E752}
/wb,elem,end               !  done creating elements
/com,*********** Send User Defined Coordinate System(s) ***********
csys,0
toffst,459.67,  ! Temperature offset from absolute zero
/com,*********** Set Reference Temperature ***********
tref,71.6
/wb,mat,start              !  starting to send materials
/com,*********** Send Materials ***********
Temperature = 'TEMP' ! Temperature
MP,DENS,1,15.2315146043509,	! slug ft^-3
MP,ALPX,1,6.66666666666667e-06,	! F^-1
MP,C,1,2595.29840047335,	! ft^2 s^-2 F^-1
MP,KXX,1,7.55607836445752,	! slug ft s^-3 F^-1
MP,RSVX,1,102.281879194631,	! ohm cmil ft^-1
MP,EX,1,4319999999.52174,	! slug s^-2 ft^-1
MP,NUXY,1,0.3,
MP,MURX,1,10000,

/wb,mat,end                !  done sending materials
/com,*********** Send Beam Properties ***********
SECTYPE,1,BEAM,I
SECDATA,0.375,0.375,0.583333333333333,3.16666666666667e-002,3.16666666666667e-002,1.91666666666667e-002
secoffset,cent

!************************* Model Summary ********************
!Line Body,	Structural Steel,	matid,	1
!************************* End Model Summary ********************
! get the diagonal of the bounding box. Needed later for other things
*get,_xmin,node,,mnloc,x
*get,_ymin,node,,mnloc,y
*get,_zmin,node,,mnloc,z
*get,_xmax,node,,mxloc,x
*get,_ymax,node,,mxloc,y
*get,_zmax,node,,mxloc,z
_ASMDIAG=(_xmax-_xmin)*(_xmax-_xmin)+(_ymax-_ymin)*(_ymax-_ymin)+(_zmax-_zmin)*(_zmax-_zmin)
_ASMDIAG=SQRT(_ASMDIAG)
/wb,contact,start          !  starting to send contact
/wb,contact,end            !  done creating contacts
/golist
/wb,load,start             !  starting to send loads
CMBLOCK,_CM36_FIXEDSU,NODE,        1
(8i10)
         1
/com,*********** Fixed Supports ***********
CMBLOCK,_FIXEDSU,NODE,        1
(8i10)
         1
cmsel,s,_FIXEDSU
d,all,all
nsel,all
/com,*********** Define Vertex Force Using Follower Elements ***********
et,2,201
keyo,2,1,1           ! Keep the direction constant
keyo,2,2,1           ! Apply Forces only, not moment
mat,2
real,2
type,2
en,128,2
r,2
rmod,2,1,1.0,              ! FX
mat,3
real,3
type,2
en,129,2
r,3
rmod,3,2,1.0,              ! FY
mat,4
real,4
type,2
en,130,2
r,4
rmod,4,3,1.0,              ! FZ
/gst,on,on
fini
*get,_numnode,node,0,count
*get,_numelem,elem,0,count
*get, _MAXELEMNUM, elem, 0, NUM, MAX
*get, _MAXNODENUM, node, 0, NUM, MAX
*get, _MAXELEMTYPE, etyp, 0, NUM, MAX
*get, _MAXREALCONST, real, 0, NUM, MAX
/go
/wb,load,end               !  done creating loads
/com,--- Number of total nodes = %_numnode%
/com,--- Number of contact elements = 0
/com,--- Number of spring elements = 0
/com,--- Number of bearing elements = 0
/com,--- Number of solid elements = 127
/com,--- Number of condensed parts = 0
/com,--- Number of total elements = %_numelem%
*get,_wallbsol,active,,time,wall
/com,****************************************************************************
/com,*************************    SOLUTION       ********************************
/com,****************************************************************************
/solu
antype,0                   ! static analysis
_thickRatio=  0     ! Ratio of thick parts in the model
eqsl,sparse,,,,,1
cntr,print,1               ! print out contact info and also make no initial contact an error
nldiag,cont,iter           ! print out contact info each equilibrium iteration
rescontrol,linear,last           ! Turn on restart files due to future eigen analysis intent
/com,****************************************************
/com,******************* SOLVE FOR LS 1 OF 1 ****************
esel,s,real,,2
sfe,all,1,pres,1,0.
esel,s,real,,3
sfe,all,1,pres,1,-9999.99999830492
esel,s,real,,4
sfe,all,1,pres,1,0.
esel,all
/nopr
/gopr
/nolist
nsub,1,1,1
time,1.
outres,erase
outres,all,none
outres,nsol,all,
outres,rsol,all
outres,eangl,all
outres,etmp,all
outres,veng,all
outres,strs,all,
outres,epel,all,
outres,eppl,all,
outres,cont,all,
/nopr
esel,s,type,,1
cm,_elmisc,elem
esel,all
/gopr
outres,misc,all,_elmisc
! *********** WB SOLVE COMMAND ***********
! check interactive state
*get,ANSINTER_,active,,int
*if,ANSINTER_,ne,0,then
/eof
*endif
solve
/com *************** Write FE CONNECTORS ********* 
CEWRITE,file,ce,,INTE
/com,****************************************************
/com,*************** FINISHED SOLVE FOR LS 1 *************
*get,_wallasol,active,,time,wall
/nopr
*get,_numnode,node,0,count
*get,_numelem,elem,0,count
*get, _MAXELEMNUM, elem, 0, NUM, MAX
*get, _MAXNODENUM, node, 0, NUM, MAX,,,INTERNAL
*get, _MAXELEMTYPE, etyp, 0, NUM, MAX
*get, _MAXREALCONST, real, 0, NUM, MAX
/gopr
/post1
xmlo,ENCODING,ISO-8859-1
xmlo,parm
/xml,parm,xml
fini
/gopr
*get,_walldone,active,,time,wall
_preptime=(_wallbsol-_wallstrt)*3600
_solvtime=(_wallasol-_wallbsol)*3600
_posttime=(_walldone-_wallasol)*3600
_totaltim=(_walldone-_wallstrt)*3600
*get,_dlbratio,active,0,solu,dlbr
*get,_combtime,active,0,solu,comb
/com,--- Total number of nodes = %_numnode%
/com,--- Total number of elements = %_numelem%
/com,--- Element load balance ratio = %_dlbratio%
/com,--- Time to combine distributed files = %_combtime%
/wb,file,end               ! done with WB generated input
