/batch
/config,noeldb,1     ! force off writing results to database
*get,_wallstrt,active,,time,wall
! ANSYS input file written by Workbench version 2021 R1
/config,resuprec,0   ! write the result values in double precision for topology optimization future intent
! File used for geometry attach: C:\Users\janga\AppData\Local\Temp\WB_janga_13636_2\wbnew_files\dp0\SYS\DM\SYS.scdoc
/title,wbnew--Static Structural (A5)
*DIM,_wb_ProjectScratch_dir,string,248
_wb_ProjectScratch_dir(1) = 'C:\Users\janga\AppData\Local\Temp\WB_janga_13636_2\_ProjectScratch\ScrD911\'
*DIM,_wb_SolverFiles_dir,string,248
_wb_SolverFiles_dir(1) = 'C:\Users\janga\AppData\Local\Temp\WB_janga_13636_2\wbnew_files\dp0\SYS\MECH\'
*DIM,_wb_userfiles_dir,string,248
_wb_userfiles_dir(1) = 'C:\Users\janga\AppData\Local\Temp\WB_janga_13636_2\wbnew_files\user_files\'
/com,--- Data in consistent NMM units. See Solving Units in the help system for more information.
/units,MPA
/nopr
/wb,file,start              !  signify a WB generated input file
/prep7
! Turn off shape checking because checks already performed inside WB mesher.
! See help system for more information.
SHPP,OFF,,NOWARN
/nolist
etcon,set             ! allow ANSYS to choose best KEYOP's for 180x elements, resets any applicable keyopt to MAPDL defaults
/com,*********** Nodes for the whole assembly ***********
nblock,3,,24271
(1i9,3e20.9e3)
        1    -1.923474494E+01     3.333333333E-01    -5.165268839E+00
        2    -1.923474494E+01     6.666666667E-01    -5.165268839E+00
        3    -1.923474494E+01     1.000000000E+00    -5.165268839E+00
        4    -1.923474494E+01     1.333333333E+00    -5.165268839E+00
        5    -1.923474494E+01     1.666666667E+00    -5.165268839E+00
        6    -1.930687804E+01     3.333333333E-01    -5.514771573E+00
        7    -1.930687804E+01     6.666666667E-01    -5.514771573E+00
        8    -1.930687804E+01     1.000000000E+00    -5.514771573E+00
        9    -1.930687804E+01     1.333333333E+00    -5.514771573E+00
       10    -1.930687804E+01     1.666666667E+00    -5.514771573E+00
       11    -2.625737000E+01     3.333333333E-01    -1.844536214E+00
       12    -2.625737000E+01     6.666666667E-01    -1.844536214E+00
       13    -2.625737000E+01     1.000000000E+00    -1.844536214E+00
       14    -2.625737000E+01     1.333333333E+00    -1.844536214E+00
       15    -2.625737000E+01     1.666666667E+00    -1.844536214E+00
       16    -2.363517566E+01     3.333333333E-01    -8.207236879E+00
       17    -2.363517566E+01     6.666666667E-01    -8.207236879E+00
       18    -2.363517566E+01     1.000000000E+00    -8.207236879E+00
       19    -2.363517566E+01     1.333333333E+00    -8.207236879E+00
       20    -2.363517566E+01     1.666666667E+00    -8.207236879E+00
! ... 22046 like lines cut
/wb,elem,start            !  set before creation of elements
/com,*********** Elements for Body 1 "SYS\Solid" ***********
et,1,186
keyo,1,2,1          ! set full integration on SOLID186
eblock,19,solid,,4518
(19i9)
        1        1        1        1        0        0        0        0       20        0        1      256      266     2796     2791     3879     3877     3371     3372
     6882     6908    15863     6883    18194    17174    17172    17177     6884     6910    15876    15864
        1        1        1        1        0        0        0        0       20        0        2      256     2791     2796      266      257     2792     2797      267
     6883    15863     6908     6882     6888    15866     6912     6887     6880    15862    15873     6907
        1        1        1        1        0        0        0        0       20        0        3      257     2792     2797      267      258     2793     2798      268
     6888    15866     6912     6887     6892    15868     6915     6891     6885    15865    15877     6911
        1        1        1        1        0        0        0        0       20        0        4      258     2793     2798      268      259     2794     2799      269
     6892    15868     6915     6891     6896    15870     6918     6895     6889    15867    15880     6914
        1        1        1        1        0        0        0        0       20        0        5      259     2794     2799      269      260     2795     2800      270
     6896    15870     6918     6895     6899    15871     6920     6898     6893    15869    15883     6917
        1        1        1        1        0        0        0        0       20        0        6      260     2795     2800      270     3982     4489     4490     3984
     6899    15871     6920     6898    18406    19592    18407    18405     6900    15872    15888     6922
        1        1        1        1        0        0        0        0       20        0        7      266     2826     2821     2796     3877     3365     3366     3371
     6909    15934    15875     6908    17156    17154    17158    17174     6910    15946    15935    15876
        1        1        1        1        0        0        0        0       20        0        8      266     2796     2821     2826      267     2797     2822     2827
     6908    15875    15934     6909     6912    15879    15937     6913     6907    15873    15933    15944
        1        1        1        1        0        0        0        0       20        0        9      267     2797     2822     2827      268     2798     2823     2828
     6912    15879    15937     6913     6915    15882    15939     6916     6911    15877    15936    15947
        1        1        1        1        0        0        0        0       20        0       10      268     2798     2823     2828      269     2799     2824     2829
     6915    15882    15939     6916     6918    15885    15941     6919     6914    15880    15938    15949
! ... 9017 like lines cut
!Material Id = {13503D1B-5970-4ADD-91B9-B6644BBDA6C7}
/wb,elem,end               !  done creating elements
/com,*********** Send User Defined Coordinate System(s) ***********
csys,0
toffst,273.15,  ! Temperature offset from absolute zero
/com,*********** Set Reference Temperature ***********
tref,22.
/wb,mat,start              !  starting to send materials
/com,*********** Send Materials ***********
Temperature = 'TEMP' ! Temperature
MP,DENS,1,7.85e-09,	! tonne mm^-3
MP,ALPX,1,1.2e-05,	! C^-1
MP,C,1,434000000,	! mm^2 s^-2 C^-1
MP,KXX,1,60.5,	! tonne mm s^-3 C^-1
MP,RSVX,1,0.00017,	! ohm mm
MP,EX,1,200000,	! tonne s^-2 mm^-1
MP,NUXY,1,0.3,
MP,MURX,1,10000,

/wb,mat,end                !  done sending materials
!************************* Model Summary ********************
!SYS\Solid,	Structural Steel,	matid,	1
!************************* End Model Summary ********************
! get the diagonal of the bounding box. Needed later for other things
*get,_xmin,node,,mnloc,x
*get,_ymin,node,,mnloc,y
*get,_zmin,node,,mnloc,z
*get,_xmax,node,,mxloc,x
*get,_ymax,node,,mxloc,y
*get,_zmax,node,,mxloc,z
_ASMDIAG=(_xmax-_xmin)*(_xmax-_xmin)+(_ymax-_ymin)*(_ymax-_ymin)+(_zmax-_zmin)*(_zmax-_zmin)
_ASMDIAG=SQRT(_ASMDIAG)
/wb,contact,start          !  starting to send contact
/wb,contact,end            !  done creating contacts
/golist
/wb,load,start             !  starting to send loads
/com,*********** Fixed Supports ***********
CMBLOCK,_FIXEDSU,NODE,      620
(8i10)
      4739      4740      4741      4742      4743      4744      4745      4746
      4747      4748      4749      4750      4751      4752      4753      4754
      4755      4756      4757      4758      4759      4760      4761      4762
      4763      4764      4765      4766      4767      4768      4769      4770
      4771      4772      4773      4774      4775      4776      4777      4778
      4779      4780      4781      4782      4783      4784      4785      4786
      4787      4788      4789      4790      4791      4792      4793      4794
      4795      4796      4797      4798      4799      4800      4801      4802
      4803      4804      4805      4806      4807      4808      4809      4810
      4811      4812      4813      4814      4815      4816      4817      4818
      4819      4820      4821      4822      4823      4824      4825      4826
      4827      4828      4829      4830      4831      4832      4833      4834
      4835      4836      4837      4838      4839      4840      4841      4842
      4843      4844      4845      4846      4847      4848      4849      4850
      4851      4852      4853      4854      4855      4856      4857      4858
      4859      4860      4861      4862      4863      4864      4865      4866
      4867      4868      4869      4870      4871      4872      4873      4874
      4875      4876      4877      4878      4879      4880      4881      4882
      4883      4884      4885      4886      4887      4888      4889      4890
      4891      4892      4893      4894      4895      4896      4897      4898
! ... 58 like lines cut
cmsel,s,_FIXEDSU
d,all,all
nsel,all
/com,*********** Create Bearing Load ***********
et,2,154
eblock,10,,,90
(15i9)
     7129        2        2        2        0     5012     5027     4737     4724    20514    19978    19951    19952
     7130        2        2        2        0     5026     5032     5031     4956    20528    20534    20386    20385
     7131        2        2        2        0     5012     4998     5028     5027    20485    20486    20530    20514
     7132        2        2        2        0     4998     4984     5029     5028    20456    20457    20531    20486
     7133        2        2        2        0     4984     4970     5030     5029    20427    20428    20532    20457
     7134        2        2        2        0     4970     4956     5031     5030    20384    20386    20533    20428
     7135        2        2        2        0     4956     4957     5033     5026    20383    20389    20529    20385
     7136        2        2        2        0     4970     4971     4957     4956    20426    20388    20383    20384
     7137        2        2        2        0     4984     4985     4971     4970    20455    20430    20426    20427
     7138        2        2        2        0     4998     4999     4985     4984    20484    20459    20455    20456
     7139        2        2        2        0     5012     5013     4999     4998    20513    20488    20484    20485
     7140        2        2        2        0     4724     4725     5013     5012    19950    19954    20513    19952
     7141        2        2        2        0     4957     4958     5034     5033    20387    20392    20536    20389
     7142        2        2        2        0     4971     4972     4958     4957    20429    20391    20387    20388
     7143        2        2        2        0     4985     4986     4972     4971    20458    20432    20429    20430
     7144        2        2        2        0     4999     5000     4986     4985    20487    20461    20458    20459
     7145        2        2        2        0     5013     5014     5000     4999    20515    20490    20487    20488
     7146        2        2        2        0     4725     4726     5014     5013    19953    19956    20515    19954
     7147        2        2        2        0     4958     4959     5035     5034    20390    20395    20537    20392
     7148        2        2        2        0     4972     4973     4959     4958    20431    20394    20390    20391
! ... 71 like lines cut
esel,s,type,,2
keyop,2,7,1                ! Use original area so load is constant in large deformation
esel,all
/gst,on,on
fini
*get,_numnode,node,0,count
*get,_numelem,elem,0,count
*get, _MAXELEMNUM, elem, 0, NUM, MAX
*get, _MAXNODENUM, node, 0, NUM, MAX
*get, _MAXELEMTYPE, etyp, 0, NUM, MAX
*get, _MAXREALCONST, real, 0, NUM, MAX
/go
/wb,load,end               !  done creating loads
/com,--- Number of total nodes = %_numnode%
/com,--- Number of contact elements = 90
/com,--- Number of spring elements = 0
/com,--- Number of bearing elements = 0
/com,--- Number of solid elements = 4518
/com,--- Number of condensed parts = 0
/com,--- Number of total elements = %_numelem%
*get,_wallbsol,active,,time,wall
/com,****************************************************************************
/com,*************************    SOLUTION       ********************************
/com,****************************************************************************
/solu
antype,0                   ! static analysis
_thickRatio=  1     ! Ratio of thick parts in the model
eqsl,pcg,1e-8,,,,,,1
cntr,print,1               ! print out contact info and also make no initial contact an error
nldiag,cont,iter           ! print out contact info each equilibrium iteration
rescontrol,,none                 ! Do not keep any restart files
/com,****************************************************
/com,******************* SOLVE FOR LS 1 OF 1 ****************
esel,s,type,,2
sfe,all,5,pres,0,0.0,1.,0.,0.
local,11,0,0,0,0,0.,0.,26.565051177078
csys,0
*set,_v1,0.894427190999916
*set,_v2,0.
*set,_v3,-0.447213595499958
*get,_necurr,elem,,count
_ecurr=0
_total=0
*do,_i,1,_necurr
  _ecurr = ELNEXT(_ecurr)
  _normx = NORMNX(NELEM(_ecurr,1),NELEM(_ecurr,2),NELEM(_ecurr,3))
  _normy = NORMNY(NELEM(_ecurr,1),NELEM(_ecurr,2),NELEM(_ecurr,3))
  _normz = NORMNZ(NELEM(_ecurr,1),NELEM(_ecurr,2),NELEM(_ecurr,3))
  _normmag = sqrt(_normx*_normx + _normy*_normy + _normz*_normz )
  _normx = _normx/_normmag
  _normy = _normy/_normmag
  _normz = _normz/_normmag
  _dot = _normx*_v1+_normy*_v2+_normz*_v3
  *if,_dot,gt,-.00001,then
    esel,u,elem,,_ecurr
  *else
    csys,11
    *get,_indd,elem,_ecurr,aproj,x
    csys,0
    _total=_total+_indd
  *endif
*enddo
*get,_necurr,elem,,count
*if,_necurr,eq,0,then
  *msg,error
  NO ELEMENTS ARE SELECTED TO APPLY BEARING LOAD TO. & 
  IT IS LIKELY THAT THE BEARING LOAD IS IN THE WRONG DIRECTION
*endif
*set,_mag,111.803398874989
_mag=_mag/_total     
sfe,all,5,pres,0,_mag,100.,0.,-50.
nsel,all
esel,all
/nopr
/gopr
/nolist
nsub,1,1,1
time,1.
outres,erase
outres,all,none
outres,nsol,all  ! Output nodal forces at all time points for Topology Optimization future intent
outres,rsol,all
outres,eangl,all
outres,etmp,all
outres,veng,all
outres,nload,all  ! Output nodal forces at all time points for Topology Optimization future intent
outres,strs,all
outres,srfs,all
outres,bkstr,all
outres,epel,all,
outres,eppl,all,
outres,cont,all,
save, file_Static22, db ! Topology optimization database
! *********** WB SOLVE COMMAND ***********
! check interactive state
*get,ANSINTER_,active,,int
*if,ANSINTER_,ne,0,then
/eof
*endif
solve
/com *************** Write FE CONNECTORS ********* 
CEWRITE,file,ce,,INTE
/com,****************************************************
/com,*************** FINISHED SOLVE FOR LS 1 *************
*get,_wallasol,active,,time,wall
/nopr
*get,_numnode,node,0,count
*get,_numelem,elem,0,count
*get, _MAXELEMNUM, elem, 0, NUM, MAX
*get, _MAXNODENUM, node, 0, NUM, MAX,,,INTERNAL
*get, _MAXELEMTYPE, etyp, 0, NUM, MAX
*get, _MAXREALCONST, real, 0, NUM, MAX
/gopr
*get,_PCGITER,active,,solu,cgiter
/post1
xmlo,ENCODING,ISO-8859-1
xmlo,parm
/xml,parm,xml
fini
/gopr
*get,_walldone,active,,time,wall
_preptime=(_wallbsol-_wallstrt)*3600
_solvtime=(_wallasol-_wallbsol)*3600
_posttime=(_walldone-_wallasol)*3600
_totaltim=(_walldone-_wallstrt)*3600
*get,_dlbratio,active,0,solu,dlbr
*get,_combtime,active,0,solu,comb
/com,--- Total number of nodes = %_numnode%
/com,--- Total number of elements = %_numelem%
/com,--- Element load balance ratio = %_dlbratio%
/com,--- Time to combine distributed files = %_combtime%
/wb,file,end               ! done with WB generated input
