/batch
/config,noeldb,1     ! force off writing results to database
*get,_wallstrt,active,,time,wall
! ANSYS input file written by Workbench version 2021 R1
! File used for geometry attach: C:\Users\janga\OneDrive - IIT Kanpur\TA-Prashamsa\ansys\beam_files\dp0\SYS\DM\SYS.agdb
/title,beam--Static Structural (A5)
*DIM,_wb_ProjectScratch_dir,string,248
_wb_ProjectScratch_dir(1) = 'C:\Users\janga\OneDrive - IIT Kanpur\TA-Prashamsa\ansys\_ProjectScratch\ScrB13E\'
*DIM,_wb_SolverFiles_dir,string,248
_wb_SolverFiles_dir(1) = 'C:\Users\janga\OneDrive - IIT Kanpur\TA-Prashamsa\ansys\beam_files\dp0\SYS\MECH\'
*DIM,_wb_userfiles_dir,string,248
_wb_userfiles_dir(1) = 'C:\Users\janga\OneDrive - IIT Kanpur\TA-Prashamsa\ansys\beam_files\user_files\'
/com,--- Data in consistent NMM units. See Solving Units in the help system for more information.
/units,MPA
/nopr
/wb,file,start              !  signify a WB generated input file
/prep7
! Turn off shape checking because checks already performed inside WB mesher.
! See help system for more information.
SHPP,OFF,,NOWARN
/nolist
etcon,set             ! allow ANSYS to choose best KEYOP's for 180x elements, resets any applicable keyopt to MAPDL defaults
/com,*********** Nodes for the whole assembly ***********
nblock,3,,8780
(1i9,3e20.9e3)
        1     1.119876018E+01    -9.635487271E+00     8.542581994E+01
        2    -7.444988494E+00     2.248494735E+00     7.658394001E+02
        3     4.431758974E+00    -7.328336115E+00     6.026859986E+02
        4    -1.245101645E+01    -1.138664049E+01     3.073468104E+02
        5    -1.082792970E+01    -1.148332875E+01     4.802207662E+02
        6    -1.190269698E+01    -1.238901820E+01     4.358884865E+02
        7    -9.803150972E+00     1.110516758E+01     5.589311723E+02
        8    -6.022577254E+00     7.449297544E+00     5.401012841E+01
        9     1.065548677E+01    -9.071842999E+00     4.181517105E+02
       10    -1.472909989E+01     9.065871740E+00     2.542495554E+02
       11     8.096420236E+00    -1.101748084E+01     4.510066641E+01
       12     1.201636099E+01    -1.251270296E+01     9.422085394E+02
       13     1.118971811E+01    -1.145024611E+01     9.611447778E+02
       14    -1.030463531E+01     1.091774045E+01     9.296256099E+02
       15    -9.200487363E+00     1.064849406E+01     6.015776659E+02
       16     1.077478688E+01    -9.965861991E+00     2.569632988E+02
       17     1.246429087E+01    -1.243437009E+01     6.976480046E+02
       18    -1.055693560E+01    -1.072100098E+01     5.378609023E+01
       19     1.152511860E+01     1.232062875E+01     7.417386144E+02
       20    -9.901548522E+00     8.700636801E+00     3.513389086E+01
! ... 7963 like lines cut
/wb,elem,start            !  set before creation of elements
/com,*********** Elements for Body 1 "Solid" ***********
et,1,187
eblock,19,solid,,3795
(19i9)
        1        1        1        1        0        0        0        0       10        0        1      719      944      147       48     4930     4932     4931     4343
     1433     4342
        1        1        1        1        0        0        0        0       10        0        2      944     1091      147       48     3735     3736     4932     1433
     1491     4342
        1        1        1        1        0        0        0        0       10        0        3     1091      944       64       48     3735     3309     3315     1491
     1433     4258
        1        1        1        1        0        0        0        0       10        0        4      944      719       64       48     4930     4251     3309     1433
     4343     4258
        1        1        1        1        0        0        0        0       10        0        5      527      525     1138      837     4242     4241     4879     1434
     6487     1435
        1        1        1        1        0        0        0        0       10        0        6     1134      527     1138      837     6499     4879     1782     3617
     1434     1435
        1        1        1        1        0        0        0        0       10        0        7      525      527       46      837     4242     4314     4252     6487
     1434     4306
        1        1        1        1        0        0        0        0       10        0        8      527     1134       46      837     6499     4312     4314     1434
     3617     4306
        1        1        1        1        0        0        0        0       10        0        9      298      525      837     1138     4153     6487     3465     6533
     4241     1435
        1        1        1        1        0        0        0        0       10        0       10      298      837     1134     1138     3465     3617     6531     6533
     1435     1782
! ... 7571 like lines cut
!Material Id = {C2DC4E6F-1C8C-43AB-8525-1C713EC4F61C}
/wb,elem,end               !  done creating elements
/com,*********** Send User Defined Coordinate System(s) ***********
csys,0
toffst,273.15,  ! Temperature offset from absolute zero
/com,*********** Set Reference Temperature ***********
tref,22.
/wb,mat,start              !  starting to send materials
/com,*********** Send Materials ***********
Temperature = 'TEMP' ! Temperature
MP,DENS,1,7.85e-09,	! tonne mm^-3
MP,ALPX,1,1.2e-05,	! C^-1
MP,C,1,434000000,	! mm^2 s^-2 C^-1
MP,KXX,1,60.5,	! tonne mm s^-3 C^-1
MP,RSVX,1,0.00017,	! ohm mm
MP,EX,1,210000,	! tonne s^-2 mm^-1
MP,NUXY,1,0.3,
MP,MURX,1,10000,

/wb,mat,end                !  done sending materials
!************************* Model Summary ********************
!Solid,	Structural Steel,	matid,	1
!************************* End Model Summary ********************
! get the diagonal of the bounding box. Needed later for other things
*get,_xmin,node,,mnloc,x
*get,_ymin,node,,mnloc,y
*get,_zmin,node,,mnloc,z
*get,_xmax,node,,mxloc,x
*get,_ymax,node,,mxloc,y
*get,_zmax,node,,mxloc,z
_ASMDIAG=(_xmax-_xmin)*(_xmax-_xmin)+(_ymax-_ymin)*(_ymax-_ymin)+(_zmax-_zmin)*(_zmax-_zmin)
_ASMDIAG=SQRT(_ASMDIAG)
/wb,contact,start          !  starting to send contact
/wb,contact,end            !  done creating contacts
/golist
/wb,load,start             !  starting to send loads
/com,*********** Fixed Supports ***********
CMBLOCK,_FIXEDSU,NODE,        9
(8i10)
       620       736      1222      1224      1276      4525      4526      6201
      6202
cmsel,s,_FIXEDSU
d,all,all
nsel,all
/com,******* Constant Zero Displacement X *******
CMBLOCK,_DISPZEROUX,NODE,        9
(8i10)
       623       739      1221      1226      1278      6137      6138      7675
      7676
cmsel,s,_DISPZEROUX
d,all,ux,0
nsel,all
/com,******* Constant Zero Displacement Y *******
CMBLOCK,_DISPZEROUY,NODE,        9
(8i10)
       623       739      1221      1226      1278      6137      6138      7675
      7676
cmsel,s,_DISPZEROUY
d,all,uy,0
nsel,all
/com,*********** Define Force Using Surface Effect Elements ***********
local,12,0,0.,0.,0.,0.,0.,0.
csys,0
et,2,154
eblock,10,,,644
(15i9)
     6444        2        2        2       12     1372     1371      442      442     7872     7911      442     7768
     6445        2        2        2       12     1372      442      439      439     7768     7913      439     7908
     6446        2        2        2       12     1371     1370      445      445     7870     7914      445     7765
     6447        2        2        2       12     1371      445      442      442     7765     7916      442     7911
     6448        2        2        2       12     1369     1368      451      451     7866     7920      451     7759
     6449        2        2        2       12     1369      451      448      448     7759     7922      448     7917
     6450        2        2        2       12     1340     1339      538      538     7863     7925      538     7756
     6451        2        2        2       12     1340      538      535      535     7756     7927      535     7923
     6452        2        2        2       12     1339     1338      541      541     7861     7928      541     7754
     6453        2        2        2       12     1339      541      538      538     7754     7930      538     7925
     6454        2        2        2       12     1338     1337      544      544     7859     7931      544     7751
     6455        2        2        2       12     1338      544      541      541     7751     7933      541     7928
     6456        2        2        2       12     1337     1336      547      547     7857     7934      547     7748
     6457        2        2        2       12     1337      547      544      544     7748     7936      544     7931
     6458        2        2        2       12     1336     1335      550      550     7855     7937      550     7746
     6459        2        2        2       12     1336      550      547      547     7746     7939      547     7934
     6460        2        2        2       12     1335     1334      553      553     7853     7940      553     7743
     6461        2        2        2       12     1335      553      550      550     7743     7942      550     7937
     6462        2        2        2       12     1425      433      436      436     7904     7907      436     7740
     6463        2        2        2       12     1425      436     1424     1424     7740     7906     1424     7902
! ... 625 like lines cut
esel,s,type,,2
keyop,2,2,1                ! Apply load in local coordinate system
keyop,2,7,1                ! Use original area so load is constant in large deformation
esel,all
/gst,on,on
fini
*get,_numnode,node,0,count
*get,_numelem,elem,0,count
*get, _MAXELEMNUM, elem, 0, NUM, MAX
*get, _MAXNODENUM, node, 0, NUM, MAX
*get, _MAXELEMTYPE, etyp, 0, NUM, MAX
*get, _MAXREALCONST, real, 0, NUM, MAX
/go
/wb,load,end               !  done creating loads
/com,--- Number of total nodes = %_numnode%
/com,--- Number of contact elements = 644
/com,--- Number of spring elements = 0
/com,--- Number of bearing elements = 0
/com,--- Number of solid elements = 3795
/com,--- Number of condensed parts = 0
/com,--- Number of total elements = %_numelem%
*get,_wallbsol,active,,time,wall
/com,****************************************************************************
/com,*************************    SOLUTION       ********************************
/com,****************************************************************************
/solu
antype,0                   ! static analysis
_thickRatio=  1     ! Ratio of thick parts in the model
eqsl,pcg,1e-8,,,,,,1
cntr,print,1               ! print out contact info and also make no initial contact an error
nldiag,cont,iter           ! print out contact info each equilibrium iteration
rescontrol,,none                 ! Do not keep any restart files
/com,****************************************************
/com,******************* SOLVE FOR LS 1 OF 1 ****************
esel,s,type,,2
nsle
sfe,all,1,pres,1,0.
sfe,all,2,pres,1,-0.124999999999962
sfe,all,3,pres,1,0.
nsel,all
esel,all
/nopr
/gopr
/nolist
nsub,1,1,1
time,1.
outres,erase
outres,all,none
outres,nsol,all,
outres,rsol,all
outres,eangl,all
outres,etmp,all
outres,veng,all
outres,strs,all,
outres,epel,all,
outres,eppl,all,
outres,cont,all,
! *********** WB SOLVE COMMAND ***********
! check interactive state
*get,ANSINTER_,active,,int
*if,ANSINTER_,ne,0,then
/eof
*endif
solve
/com *************** Write FE CONNECTORS ********* 
CEWRITE,file,ce,,INTE
/com,****************************************************
/com,*************** FINISHED SOLVE FOR LS 1 *************
*get,_wallasol,active,,time,wall
/nopr
*get,_numnode,node,0,count
*get,_numelem,elem,0,count
*get, _MAXELEMNUM, elem, 0, NUM, MAX
*get, _MAXNODENUM, node, 0, NUM, MAX,,,INTERNAL
*get, _MAXELEMTYPE, etyp, 0, NUM, MAX
*get, _MAXREALCONST, real, 0, NUM, MAX
/gopr
*get,_PCGITER,active,,solu,cgiter
/post1
xmlo,ENCODING,ISO-8859-1
xmlo,parm
/xml,parm,xml
fini
/gopr
*get,_walldone,active,,time,wall
_preptime=(_wallbsol-_wallstrt)*3600
_solvtime=(_wallasol-_wallbsol)*3600
_posttime=(_walldone-_wallasol)*3600
_totaltim=(_walldone-_wallstrt)*3600
*get,_dlbratio,active,0,solu,dlbr
*get,_combtime,active,0,solu,comb
/com,--- Total number of nodes = %_numnode%
/com,--- Total number of elements = %_numelem%
/com,--- Element load balance ratio = %_dlbratio%
/com,--- Time to combine distributed files = %_combtime%
/wb,file,end               ! done with WB generated input
